
 + + + + + + + + + + + + + + + + + + + + + + + + + + + + + + + + + + + + + + + +
 + + + + + + + + + + + + + + + + + + + + + + + + + + + + + + + + + + + + + + + +
 + +                                                                         + +
 + +                      ASPEN PLUS CALCULATION HISTORY                     + +
 + +                                                                         + +
 + + + + + + + + + + + + + + + + + + + + + + + + + + + + + + + + + + + + + + + +
 + + + + + + + + + + + + + + + + + + + + + + + + + + + + + + + + + + + + + + + +

 ASPEN PLUS IS A TRADEMARK OF           HOTLINE:
 ASPEN TECHNOLOGY, INC.                 U.S.A. 888/996-7100
 781/221-6400                           EUROPE (44) 1189-226555

 PLATFORM: WIN-X64                                       AUGUST 18, 2025     
 VERSION: 37.0   Build 395                               MONDAY      
 INSTALLATION:                                           9:25:06 A.M.        

 THIS COPY OF ASPEN PLUS LICENSED TO                                 


      ASPEN PLUS (R) IS A PROPRIETARY PRODUCT OF ASPEN TECHNOLOGY, INC.
      (ASPENTECH), AND MAY BE USED ONLY UNDER AGREEMENT WITH ASPENTECH.
      RESTRICTED RIGHTS LEGEND:  USE, REPRODUCTION, OR DISCLOSURE BY THE
      U.S. GOVERNMENT IS SUBJECT TO RESTRICTIONS SET FORTH IN 
      (i) FAR 52.227-14, Alt. III, (ii) FAR 52.227-19, (iii) DFARS 
      252.227-7013(c)(1)(ii), or (iv) THE ACCOMPANYING LICENSE AGREEMENT,
      AS APPLICABLE. FOR PURPOSES OF THE FAR, THIS SOFTWARE SHALL BE DEEMED
      TO BE "UNPUBLISHED" AND LICENSED WITH DISCLOSURE PROHIBITIONS.
      CONTRACTOR/SUBCONTRACTOR: ASPEN TECHNOLOGY, INC. 20 CROSBY DRIVE,
      BEDFORD, MA 01730.
 *** INPUT SUMMARY ***

 >>CURRENT RUN

   ORIGINAL RUN                           AUGUST 18, 2025     
   9:25:06 A.M.                           MONDAY      
   INPUT FILE: _2344jmo.inm
   RUN ID : _2344jmo
          1    ;
          2    ;Input file created by Aspen Plus Rel. 37.0 at 09:25:05 Mon Aug 18, 2025
          3    ;Directory   Runid CASO ESTUDIO INTENSIFICADO
          4    ;
          5
          6
          7    DYNAMICS
          8        DYNAMICS RESULTS=ON
          9
         10    IN-UNITS MET PRESSURE=bar TEMPERATURE=C DELTA-T=C PDROP=bar  &
         11            INVERSE-PRES='1/bar' SHORT-LENGTH=mm
         12
         13    DEF-STREAMS CONVEN ALL
         14
         15    SIM-OPTIONS MASS-BAL-CHE=YES NPHASE=2
         16
         17    MODEL-OPTION
         18
         19    DATABANKS 'APV110 PURE37' / 'APV110 AQUEOUS' / 'APV110 SOLIDS' &
         20             / 'APV110 INORGANIC' / 'APESV110 AP-EOS' /  &
         21            'NISTV110 NIST-TRC' / NOASPENPCD
         22
         23    PROP-SOURCES 'APV110 PURE37' / 'APV110 AQUEOUS' /  &
         24            'APV110 SOLIDS' / 'APV110 INORGANIC' / 'APESV110 AP-EOS' &
         25             / 'NISTV110 NIST-TRC'
         26
         27    COMPONENTS
         28        METHA-01 CH4O /
         29        DICHL-01 CH2CL2 /
         30        N:N-D-01 C3H7NO
         31
         32    SOLVE
         33        RUN-MODE MODE=SIM
         34
         35    FLOWSHEET
         36        BLOCK B1 IN=S1 3 5 OUT=DCM DMF VR
         37        BLOCK B2 IN=VR OUT=MEOH S1
         38        BLOCK EXC1 IN=SOLVENT OUT=3
         39        BLOCK EXC2 IN=FEED OUT=5
         40
         41    PROPERTIES NRTL
         42
         43    PROP-DATA NRTL-1
         44        IN-UNITS MET PRESSURE=bar TEMPERATURE=C DELTA-T=C PDROP=bar  &
         45            INVERSE-PRES='1/bar' SHORT-LENGTH=mm
         46        PROP-LIST NRTL
         47        BPVAL METHA-01 DICHL-01 0.0 -102.5306000 .3000000000 0.0  &
         48            0.0 0.0 37.64000000 64.53000000
         49        BPVAL DICHL-01 METHA-01 0.0 812.7825000 .3000000000 0.0  &
         50            0.0 0.0 37.64000000 64.53000000
         51        BPVAL METHA-01 N:N-D-01 -.5010000000 712.2657000 .3000000000  &
         52            0.0 0.0 0.0 20.00000000 152.5000000
         53        BPVAL N:N-D-01 METHA-01 -.8325000000 -208.2091000  &
         54            .3000000000 0.0 0.0 0.0 20.00000000 152.5000000
         55        BPVAL DICHL-01 N:N-D-01 -2.743510000 1401.151000 .3000000000  &
         56            0.0 0.0 0.0 40.70000000 153.0000000
         57        BPVAL N:N-D-01 DICHL-01 -9.448972000 3263.881000 .3000000000  &
         58            0.0 0.0 0.0 40.70000000 153.0000000
         59
         60    STREAM FEED
         61        SUBSTREAM MIXED TEMP=50. PRES=1. MOLE-FLOW=100.
         62        MOLE-FRAC METHA-01 0.5 / DICHL-01 0.5
         63
         64    STREAM SOLVENT
         65        SUBSTREAM MIXED TEMP=50. PRES=1. MOLE-FLOW=50.
         66        MOLE-FRAC METHA-01 1.7E-11 / DICHL-01 1.7E-08 / N:N-D-01  &
         67            1.
         68
         69    BLOCK EXC1 HEATER
         70        PARAM PRES=1.4 <atm> VFRAC=0. DPPARMOPT=NO
         71
         72    BLOCK EXC2 HEATER
         73        PARAM PRES=1.4 <atm> VFRAC=0. DPPARMOPT=NO
         74
         75    BLOCK B1 RADFRAC
         76        SUBOBJECTS INTERNALS = INT
         77        PARAM NSTAGE=42 ALGORITHM=STANDARD INIT-OPTION=STANDARD  &
         78            HYDRAULIC=NO MAXOL=200 NPHASE=2 DAMPING=NONE
         79        PARAM2 STATIC-DP=YES
         80        COL-CONFIG CONDENSER=TOTAL REBOILER=KETTLE CA-CONFIG=INT-1
         81        FEEDS S1 35 ON-STAGE / 3 6 ON-STAGE / 5 21 ON-STAGE
         82        PRODUCTS DCM 1 L / DMF 42 L / VR 35 V MOLE-FLOW=58.
         83        P-SPEC 1 1.4 <atm>
         84        COL-SPECS MOLE-D=50. MOLE-RR=1.89
         85        BLOCK-OPTION FREE-WATER=NO
         86        REPORT NOHYDRAULIC
         87        INTERNALS INT STAGE1=2 STAGE2=41 P-UPDATE=NO
         88        TRAY-SIZE 1 2 41 SIEVE
         89
         90    BLOCK B2 RADFRAC
         91        SUBOBJECTS INTERNALS = INT
         92        PARAM NSTAGE=35 ALGORITHM=STANDARD INIT-OPTION=STANDARD  &
         93            HYDRAULIC=NO MAXOL=200 NPHASE=2 DAMPING=NONE
         94        PARAM2 STATIC-DP=YES
         95        COL-CONFIG CONDENSER=TOTAL REBOILER=NONE CA-CONFIG=INT-1
         96        FEEDS VR 35 ON-STAGE
         97        PRODUCTS MEOH 1 L / S1 35 L
         98        P-SPEC 1 1.4 <atm>
         99        COL-SPECS MOLE-D=50.
        100        BLOCK-OPTION FREE-WATER=NO
        101        REPORT NOHYDRAULIC
        102        INTERNALS INT STAGE1=2 STAGE2=35 P-UPDATE=NO
        103        TRAY-SIZE 1 2 35 SIEVE
        104
        105    EO-CONV-OPTI
        106
        107    CONV-OPTIONS
        108        PARAM TEAR-METHOD=BROYDEN TOL=0.0001
        109        WEGSTEIN MAXIT=100
        110        BROYDEN MAXIT=100
        111
        112    STREAM-REPOR MOLEFLOW
        113
        114    PROPERTY-REP PCES NOPARAM-PLUS
        115    ;
        116    ;
        117    ;
        118    ;
        119    ;
 *** INPUT TRANSLATOR MESSAGES ***

  *** THIS RUN USES THE PROPERTIES ENTERPRISE DATABASE ***
      SQLLOCALDB.APESV110 : (DATAVERSION - 37.0.0.22)                         
      SQLLOCALDB.APV110 : (DATAVERSION - 37.0.0.27)                           
      SQLLOCALDB.FACTV110 : (DATAVERSION - 37.0.0.11)                         
      SQLLOCALDB.NISTV110 : (DATAVERSION - 37.0.0.27)                         
 
 

 PDF updated                                                                      TIME =      2.78

 *** CALCULATION TRACE ***


 *** FLOWSHEET ANALYSIS MESSAGES ***

 FLOWSHEET CONNECTIVITY BY STREAMS       

   STREAM     SOURCE     DEST           STREAM     SOURCE     DEST
   SOLVENT    ----       EXC1           FEED       ----       EXC2    
   DCM        B1         ----           DMF        B1         ----    
   VR         B1         B2             MEOH       B2         ----    
   S1         B2         B1             3          EXC1       B1      
   5          EXC2       B1                                           

 FLOWSHEET CONNECTIVITY BY BLOCKS        

   BLOCK        INLETS                         OUTLETS
   B1           S1 3 5                         DCM DMF VR                  
   B2           VR                             MEOH S1                     
   EXC1         SOLVENT                        3                           
   EXC2         FEED                           5                           

      BLOCK $OLVER01 (METHOD: BROYDEN ) HAS BEEN DEFINED TO CONVERGE
               STREAMS: VR

      COMPUTATION ORDER FOR THE FLOWSHEET IS:
      EXC2 EXC1 
      $OLVER01 B2 B1 
      (RETURN $OLVER01) 

Calculations begin                                                              time      0.29


 SIMULATION CALCULATIONS BEGIN                                                    TIME =      0.29

      ENTHALPY CALCULATION FOR INLET STREAM FEED OF BLOCK EXC2                    TIME =      0.29
      KODE = 2  NTRIAL =   4  T = 323.1500  P =  100000.      V = 0.898600      Q =  0.00000    

      UOS BLOCK EXC2     MODEL: HEATER                                            TIME =      0.33
      KODE = 3  NTRIAL =   5  T = 322.0683  P =  141855.      V =  0.00000      Q = -782601.    

      ENTHALPY CALCULATION FOR INLET STREAM SOLVENT OF BLOCK EXC1                 TIME =      0.33
      KODE = 2  NTRIAL =   1  T = 323.1500  P =  100000.      V =  0.00000      Q =  0.00000    

      UOS BLOCK EXC1     MODEL: HEATER                                            TIME =      0.33
      KODE = 3  NTRIAL =   4  T = 437.8577  P =  141855.      V =  0.00000      Q =  275684.    

      CONVERGENCE BLOCK $OLVER01  METHOD: BROYDEN                                 TIME =      0.33
      ITER   0 For Tear Streams: VR

      UOS BLOCK B2       MODEL: RADFRAC                                           TIME =      0.33

  *   WARNING WHILE EXECUTING UNIT OPERATIONS BLOCK: "B2" (MODEL: "RADFRAC")    
                                                               (UDL3II.7060)    
      ZERO FEED - BLOCK BYPASSED.                                               

      UOS BLOCK B1       MODEL: RADFRAC                                           TIME =      0.33

       Convergence iterations:
         OL   ML   IL     Err/Tol
          1    1   10      1096.5    
          2    1    8      449.32    
          3    1    6      203.74    
          4    1    4      83.852    
          5    1    5      16.472    
          6    1    5      5.3753    
          7    1    5      2.1578    
          8    1    4     0.89370    

      CONVERGENCE BLOCK $OLVER01  METHOD: BROYDEN                                 TIME =      0.36
      ITER   1 For Tear Streams: VR

      --FLASH TEAR STREAM VR      
      KODE = 1  NTRIAL =   7  T = 384.7952  P =  141855.      V =  1.00000      Q =  0.00000    

  LOOP $OLVER01 ITER    1:   4 VARS NOT CONVERGED, MAX ERR/TOL     0.10000E+07    TIME =      0.38

      UOS BLOCK B2       MODEL: RADFRAC                                           TIME =      0.38

       Convergence iterations:
         OL   ML   IL     Err/Tol
          1    1    7      596.84    
          2    1    7      214.57    
          3    1    5      29.440    
          4    1    5      6.4502    
          5    1    4      1.7815    
          6    1    4     0.35210    

      UOS BLOCK B1       MODEL: RADFRAC                                           TIME =      0.38

       Convergence iterations:
         OL   ML   IL     Err/Tol
          1    1   10      40.135    
          2    1    6      11.514    
          3    1    3      2.9490    
          4    1    5     0.18741    

      CONVERGENCE BLOCK $OLVER01  METHOD: BROYDEN                                 TIME =      0.38
      ITER   2 For Tear Streams: VR

      --FLASH TEAR STREAM VR      
      KODE = 1  NTRIAL =   4  T = 377.7954  P =  141855.      V =  1.00000      Q =  0.00000    

  LOOP $OLVER01 ITER    2:   4 VARS NOT CONVERGED, MAX ERR/TOL     -3211.5        TIME =      0.38

      UOS BLOCK B2       MODEL: RADFRAC                                           TIME =      0.38

       Convergence iterations:
         OL   ML   IL     Err/Tol
          1    1   10      173.76    
          2    1    7      43.301    
          3    1    6      19.138    
          4    1    4      2.2153    
          5    1    5     0.83201    

      UOS BLOCK B1       MODEL: RADFRAC                                           TIME =      0.39

       Convergence iterations:
         OL   ML   IL     Err/Tol
          1    1   10      12.294    
          2    1    5      3.9244    
          3    1    7      1.0547    
          4    1    4     0.98665E-01

      CONVERGENCE BLOCK $OLVER01  METHOD: BROYDEN                                 TIME =      0.40
      ITER   3 For Tear Streams: VR

      --FLASH TEAR STREAM VR      
      NO. TEMP ITER =    4     TEMP =  375.533    
      KODE = 1  NTRIAL =   3  T = 375.5333  P =  141855.      V =  1.00000      Q =  0.00000    

  LOOP $OLVER01 ITER    3:   4 VARS NOT CONVERGED, MAX ERR/TOL     -1116.4        TIME =      0.40

      UOS BLOCK B2       MODEL: RADFRAC                                           TIME =      0.40

       Convergence iterations:
         OL   ML   IL     Err/Tol
          1    1   10      944.25    
          2    1   10      1240.6    
          3    1   10      2110.9    
          4    1   10      1244.7    
          5    1   10      2694.9    
          6    1   10      808.90    
          7    1   10      1608.0    
          8    1   10      1986.0    
          9    1   10      997.12    
         10    1   10      1580.0    
         11    1   10      2056.8    
         12    1   10      1784.2    
         13    1   10      1130.1    
         14    1   10      923.78    
         15    1   10      947.74    
         16    1   10      831.34    
         17    1   10      520.42    
         18    1   10      462.43    
         19    1    9      295.74    
         20    1    7      22.537    
         21    1    6      12.857    
         22    1    7      3.4092    
         23    1    7      1.4279    
         24    1    5     0.40045    

      UOS BLOCK B1       MODEL: RADFRAC                                           TIME =      0.41

       Convergence iterations:
         OL   ML   IL     Err/Tol
          1    1   10      5.2464    
          2    1    5      1.7051    
          3    1    6     0.46437    

      CONVERGENCE BLOCK $OLVER01  METHOD: BROYDEN                                 TIME =      0.42
      ITER   4 For Tear Streams: VR

      --FLASH TEAR STREAM VR      
      NO. TEMP ITER =    4     TEMP =  374.953    
      KODE = 1  NTRIAL =   2  T = 374.9527  P =  141855.      V =  1.00000      Q =  0.00000    

  LOOP $OLVER01 ITER    4:   4 VARS NOT CONVERGED, MAX ERR/TOL     -176.78        TIME =      0.42

      UOS BLOCK B2       MODEL: RADFRAC                                           TIME =      0.42

       Convergence iterations:
         OL   ML   IL     Err/Tol
          1    1   10      1435.8    
          2    1   10      262.19    
          3    1   10      916.39    
          4    1   10      916.66    
          5    1   10      2150.0    
          6    1   10      808.92    
          7    1   10      898.10    
          8    1   10      814.74    
          9    1   10      2185.6    
         10    1   10      668.41    
         11    1   10      385.66    
         12    1   10      517.92    
         13    1   10      1495.9    
         14    1    5      1792.5    
         15    1   10      188.08    
         16    1   10      660.43    
         17    1   10      964.57    
         18    1   10      1587.3    
         19    1    6      2063.4    
         20    1    4      94.610    
         21    1    7      102.54    
         22    1    8      142.61    
         23    1   10      244.83    
         24    1   10      619.72    
         25    1   10      1014.2    
         26    1   10      1688.7    
         27    1   10      1482.2    
         28    1    5      2370.1    
         29    1    4      102.14    
         30    1    7      109.98    
         31    1    9      147.11    
         32    1    5      75.320    
         33    1   10      493.03    
         34    1   10      866.89    
         35    1   10      1887.2    
         36    1   10      791.47    
         37    1    6      1969.0    
         38    1    4      148.24    
         39    1    9      183.76    
         40    1   10      529.42    
         41    1   10      570.36    
         42    1   10      1282.8    
         43    1    8      2687.2    
         44    1    5      86.696    
         45    1   10      387.40    
         46    1   10      1109.3    
         47    1   10      2087.7    
         48    1    5      2299.3    
         49    1    4      119.74    
         50    1   10      140.23    
         51    1    7      188.44    
         52    1   10      322.49    
         53    1   10      738.04    
         54    1   10      1627.4    
         55    1   10      1021.9    
         56    1   10      1953.1    
         57    1   10      1165.4    
         58    1   10      2140.7    
         59    1    4      1923.8    
         60    1    5      124.36    
         61    1   10      301.68    
         62    1   10      783.45    
         63    1   10      1468.5    
         64    1    8      2258.0    
         65    1    5      56.634    
         66    1    7      99.446    
         67    1    6      159.02    
         68    1   10      741.53    
         69    1   10      898.52    
         70    1   10      1233.9    
         71    1   10      2566.1    
         72    1    4      92.721    
         73    1    8      77.505    
         74    1    8      134.11    
         75    1   10      366.68    
         76    1   10      864.99    
         77    1   10      1756.8    
         78    1   10      1172.9    
         79    1   10      1716.3    
         80    1    4      2357.6    
         81    1    5      81.368    
         82    1   10      991.23    
         83    1   10      2218.2    
         84    1   10      1139.2    
         85    1   10      1123.0    
         86    1    6      2471.4    
         87    1    8      63.106    
         88    1    6      125.04    
         89    1   10      368.30    
         90    1   10      623.11    
         91    1   10      506.37    
         92    1   10      753.95    
         93    1   10      1013.2    
         94    1   10      1059.7    
         95    1   10      759.85    
         96    1   10      431.77    
         97    1   10      511.07    
         98    1   10      719.32    
         99    1   10      502.27    
        100    1   10      490.57    
        101    1   10      642.21    
        102    1   10      520.76    
        103    1   10      1286.6    
        104    1    6      2348.8    
        105    1    4      136.11    
        106    1    6      76.189    
        107    1    7      132.04    
        108    1    8      146.06    
        109    1    6      131.28    
        110    1   10      696.74    
        111    1   10      1003.2    
        112    1   10      1374.4    
        113    1   10      2578.8    
        114    1    6      133.17    
        115    1    7      125.39    
        116    1    8      205.18    
        117    1   10      559.58    
        118    1   10      463.47    
        119    1   10      921.21    
        120    1   10      476.12    
        121    1   10      1797.9    
        122    1    4      2290.2    
        123    1    9      137.42    
        124    1   10      269.97    
        125    1   10      914.99    
        126    1   10      1968.3    
        127    1   10      2084.9    
        128    1   10      1086.0    
        129    1   10      1974.0    
        130    1    6      2082.6    
        131    1    5      210.44    
        132    1   10      715.20    
        133    1   10      1695.7    
        134    1    6      1579.3    
        135    1    7      170.00    
        136    1   10      484.89    
        137    1   10      920.47    
        138    1   10      760.56    
        139    1   10      2170.7    
        140    1   10      1137.0    
        141    1   10      1409.0    
        142    1   10      2105.6    
        143    1   10      1009.8    
        144    1   10      1690.7    
        145    1    5      2611.4    
        146    1    4      127.29    
        147    1    6      112.26    
        148    1    6      132.35    
        149    1    5      117.80    
        150    1   10      216.63    
        151    1   10      445.38    
        152    1   10      862.30    
        153    1   10      1439.2    
        154    1   10      454.32    
        155    1   10      1424.4    
        156    1   10      2614.7    
        157    1   10      1025.2    
        158    1    9      2116.1    
        159    1   10      787.32    
        160    1   10      1624.4    
        161    1   10      1798.2    
        162    1   10      1259.1    
        163    1   10      2386.5    
        164    1   10      360.21    
        165    1    9      102.66    
        166    1   10      506.35    
        167    1   10      961.61    
        168    1   10      2234.7    
        169    1    5      130.33    
        170    1    8      103.75    
        171    1    7      149.08    
        172    1    8      152.46    
        173    1    4      64.559    
        174    1   10      466.18    
        175    1   10      631.51    
        176    1   10      677.07    
        177    1   10      1032.9    
        178    1   10      2060.0    
        179    1   10      1687.7    
        180    1    7      2020.0    
        181    1    7      188.48    
        182    1   10      584.81    
        183    1   10      946.44    
        184    1   10      988.52    
        185    1   10      555.10    
        186    1   10      1117.0    
        187    1   10      814.69    
        188    1   10      2271.6    
        189    1   10      438.63    
        190    1   10      937.84    
        191    1   10      1142.8    
        192    1    6      2528.4    
        193    1    4      330.57    
        194    1    6      80.230    
        195    1    8      165.98    
        196    1   10      525.14    
        197    1   10      975.95    
        198    1   10      1795.2    
        199    1   10      1076.3    
        200    1   10      1298.2    

  **  ERROR WHILE EXECUTING UNIT OPERATIONS BLOCK: "B2" (MODEL: "RADFRAC")      
                                                               (UDL03.1)        
      RADFRAC NOT CONVERGED IN 200 OUTSIDE LOOP ITERATIONS.                     


  **  ERROR WHILE EXECUTING UNIT OPERATIONS BLOCK: "B2" (MODEL: "RADFRAC")      
                                                               (BALMAS.1)       
      BLOCK B2 IS NOT IN MASS BALANCE:                                          
      MASS INLET FLOW = 0.56816928E+00, MASS OUTLET FLOW = 0.56751378E+00       
      RELATIVE DIFFERENCE = 0.11550408E-02                                      

      UOS BLOCK B1       MODEL: RADFRAC                                           TIME =      0.62

       Convergence iterations:
         OL   ML   IL     Err/Tol
          1    1   10      2.1574    
          2    1    7     0.68393    

      CONVERGENCE BLOCK $OLVER01  METHOD: BROYDEN                                 TIME =      0.62
      ITER   5 For Tear Streams: VR

      --FLASH TEAR STREAM VR      
      NO. TEMP ITER =    4     TEMP =  374.468    
      KODE = 1  NTRIAL =   2  T = 374.4681  P =  141855.      V =  1.00000      Q =  0.00000    

  LOOP $OLVER01 ITER    5:   4 VARS NOT CONVERGED, MAX ERR/TOL     -130.12        TIME =      0.62

      UOS BLOCK B2       MODEL: RADFRAC                                           TIME =      0.62

       Convergence iterations:
         OL   ML   IL     Err/Tol
          1    1    9      1352.6    
          2    1    2      57.173    
          3    1    5      11.661    
          4    1    4      1.7898    
          5    1    4     0.17966    

      UOS BLOCK B1       MODEL: RADFRAC                                           TIME =      0.63

       Convergence iterations:
         OL   ML   IL     Err/Tol
          1    1   10      2.2288    
          2    1    8     0.79908    

      CONVERGENCE BLOCK $OLVER01  METHOD: BROYDEN                                 TIME =      0.63
      ITER   6 For Tear Streams: VR

      --FLASH TEAR STREAM VR      
      NO. TEMP ITER =    3     TEMP =  374.421    
      KODE = 1  NTRIAL =   1  T = 374.4210  P =  141855.      V =  1.00000      Q =  0.00000    

  LOOP $OLVER01 ITER    6:   2 VARS NOT CONVERGED, MAX ERR/TOL     -3.9715        TIME =      0.63

      UOS BLOCK B2       MODEL: RADFRAC                                           TIME =      0.63

       Convergence iterations:
         OL   ML   IL     Err/Tol
          1    1    5     0.33662    

      UOS BLOCK B1       MODEL: RADFRAC                                           TIME =      0.63

       Convergence iterations:
         OL   ML   IL     Err/Tol
          1    1    9     0.17215    

      CONVERGENCE BLOCK $OLVER01  METHOD: BROYDEN                                 TIME =      0.63
      ITER   7 For Tear Streams: VR

      --FLASH TEAR STREAM VR      
      KODE = 1  NTRIAL =   8  T = 374.4058  P =  141855.      V = 0.999997      Q =  0.00000    

  LOOP $OLVER01 ITER    7:   1 VARS NOT CONVERGED, MAX ERR/TOL     -1.8440        TIME =      0.63

      UOS BLOCK B2       MODEL: RADFRAC                                           TIME =      0.64

       Convergence iterations:
         OL   ML   IL     Err/Tol
          1    1    5      1.1119    
          2    1    4     0.59026    

      UOS BLOCK B1       MODEL: RADFRAC                                           TIME =      0.64

       Convergence iterations:
         OL   ML   IL     Err/Tol
          1    1    9     0.71531E-01

      CONVERGENCE BLOCK $OLVER01  METHOD: BROYDEN                                 TIME =      0.64
      ITER   8 For Tear Streams: VR

      --FLASH TEAR STREAM VR      
      KODE = 1  NTRIAL =   2  T = 374.3840  P =  141855.      V = 0.999997      Q =  0.00000    

  LOOP $OLVER01 ITER    8:   1 VARS NOT CONVERGED, MAX ERR/TOL     -1.7112        TIME =      0.64

      UOS BLOCK B2       MODEL: RADFRAC                                           TIME =      0.64

       Convergence iterations:
         OL   ML   IL     Err/Tol
          1    1    6      1.6512    
          2    1    4     0.89025    

      UOS BLOCK B1       MODEL: RADFRAC                                           TIME =      0.66

       Convergence iterations:
         OL   ML   IL     Err/Tol
          1    1   10     0.13597    

      CONVERGENCE BLOCK $OLVER01  METHOD: BROYDEN                                 TIME =      0.67
      ITER   9 For Tear Streams: VR

      --FLASH TEAR STREAM VR      
      KODE = 1  NTRIAL =   2  T = 374.3572  P =  141855.      V = 0.999997      Q =  0.00000    

  LOOP $OLVER01 ITER    9:   1 VARS NOT CONVERGED, MAX ERR/TOL     -1.2164        TIME =      0.67

      UOS BLOCK B2       MODEL: RADFRAC                                           TIME =      0.67

       Convergence iterations:
         OL   ML   IL     Err/Tol
          1    1    6      1.9590    
          2    1    4      1.0314    
          3    1    4     0.27786    

      UOS BLOCK B1       MODEL: RADFRAC                                           TIME =      0.67

       Convergence iterations:
         OL   ML   IL     Err/Tol
          1    1    6     0.17535    

      CONVERGENCE BLOCK $OLVER01  METHOD: BROYDEN                                 TIME =      0.67
      ITER  10 For Tear Streams: VR

      --FLASH TEAR STREAM VR      
      KODE = 1  NTRIAL =   3  T = 374.2378  P =  141855.      V = 0.999997      Q =  0.00000    

  LOOP $OLVER01 ITER   10:   1 VARS NOT CONVERGED, MAX ERR/TOL     -2.0122        TIME =      0.67

      UOS BLOCK B2       MODEL: RADFRAC                                           TIME =      0.67

       Convergence iterations:
         OL   ML   IL     Err/Tol
          1    1    7      7.1189    
          2    1    3      3.5896    
          3    1    4     0.73167    

      UOS BLOCK B1       MODEL: RADFRAC                                           TIME =      0.68

       Convergence iterations:
         OL   ML   IL     Err/Tol
          1    1   10     0.80396    
          2    1    6     0.27387    

      CONVERGENCE BLOCK $OLVER01  METHOD: BROYDEN                                 TIME =      0.68
      ITER  11 For Tear Streams: VR

      --FLASH TEAR STREAM VR      
      NO. TEMP ITER =    4     TEMP =  374.017    
      KODE = 1  NTRIAL =   2  T = 374.0168  P =  141855.      V =  1.00000      Q =  0.00000    

  LOOP $OLVER01 ITER   11:   2 VARS NOT CONVERGED, MAX ERR/TOL     -2.0566        TIME =      0.68

      UOS BLOCK B2       MODEL: RADFRAC                                           TIME =      0.68

       Convergence iterations:
         OL   ML   IL     Err/Tol
          1    1    7      10.699    
          2    1    3      4.8056    
          3    1    3     0.87656    

      UOS BLOCK B1       MODEL: RADFRAC                                           TIME =      0.77

       Convergence iterations:
         OL   ML   IL     Err/Tol
          1    1   10      1.6835    
          2    1    6     0.54793    

      CONVERGENCE BLOCK $OLVER01  METHOD: BROYDEN                                 TIME =      0.78
      ITER  12 For Tear Streams: VR

      --FLASH TEAR STREAM VR      
      NO. TEMP ITER =    4     TEMP =  373.128    
      KODE = 1  NTRIAL =   3  T = 373.1278  P =  141855.      V =  1.00000      Q =  0.00000    

  LOOP $OLVER01 ITER   12:   1 VARS NOT CONVERGED, MAX ERR/TOL     -3.1064        TIME =      0.78

      UOS BLOCK B2       MODEL: RADFRAC                                           TIME =      0.78

       Convergence iterations:
         OL   ML   IL     Err/Tol
          1    1    5      26.125    
          2    1    3      7.9321    
          3    1    4     0.94360    

      UOS BLOCK B1       MODEL: RADFRAC                                           TIME =      0.78

       Convergence iterations:
         OL   ML   IL     Err/Tol
          1    1   10      8.2743    
          2    1    5      2.8816    
          3    1    6     0.84653    

      CONVERGENCE BLOCK $OLVER01  METHOD: BROYDEN                                 TIME =      0.78
      ITER  13 For Tear Streams: VR

      --FLASH TEAR STREAM VR      
      NO. TEMP ITER =    4     TEMP =  377.103    
      KODE = 1  NTRIAL =   4  T = 377.1031  P =  141855.      V =  1.00000      Q =  0.00000    

  LOOP $OLVER01 ITER   13:   2 VARS NOT CONVERGED, MAX ERR/TOL      7.1678        TIME =      0.78

      UOS BLOCK B2       MODEL: RADFRAC                                           TIME =      0.78

       Convergence iterations:
         OL   ML   IL     Err/Tol
          1    1    4      34.432    
          2    1    3     0.84803    

      UOS BLOCK B1       MODEL: RADFRAC                                           TIME =      0.78

       Convergence iterations:
         OL   ML   IL     Err/Tol
          1    1   10      157.28    
          2    1   10      49.327    
          3    1   10      165.79    
          4    1   10      138.22    
          5    1   10      140.87    
          6    1   10      40.136    
          7    1    7      11.504    
          8    1   10      1.4753    
          9    1    8      1.2504    
         10    1    7     0.55753    

      CONVERGENCE BLOCK $OLVER01  METHOD: BROYDEN                                 TIME =      0.79
      ITER  14 For Tear Streams: VR

      --FLASH TEAR STREAM VR      
      KODE = 1  NTRIAL =   7  T = 360.6134  P =  141855.      V =  1.00000      Q =  0.00000    

  LOOP $OLVER01 ITER   14:   3 VARS NOT CONVERGED, MAX ERR/TOL      61.901        TIME =      0.80

      UOS BLOCK B2       MODEL: RADFRAC                                           TIME =      0.80

       Convergence iterations:
         OL   ML   IL     Err/Tol
          1    1    3     0.19849    

      UOS BLOCK B1       MODEL: RADFRAC                                           TIME =      0.86

       Convergence iterations:
         OL   ML   IL     Err/Tol
          1    1    7     0.92862E-01

      CONVERGENCE BLOCK $OLVER01  METHOD: BROYDEN                                 TIME =      0.87
      ITER  15 For Tear Streams: VR

      --FLASH TEAR STREAM VR      
      KODE = 1  NTRIAL =   1  T = 360.6079  P =  141855.      V =  1.00000      Q =  0.00000    

  LOOP $OLVER01 ITER   15:   2 VARS NOT CONVERGED, MAX ERR/TOL      7.2394        TIME =      0.87

      UOS BLOCK B2       MODEL: RADFRAC                                           TIME =      0.87

       Convergence iterations:
         OL   ML   IL     Err/Tol
          1    1    2     0.60131E-02

      UOS BLOCK B1       MODEL: RADFRAC                                           TIME =      0.87

       Convergence iterations:
         OL   ML   IL     Err/Tol
          1    1    6     0.62488E-01

      CONVERGENCE BLOCK $OLVER01  METHOD: BROYDEN                                 TIME =      0.87
      ITER  16 For Tear Streams: VR

      --FLASH TEAR STREAM VR      
      NO. TEMP ITER =    1     TEMP =  360.606    
      KODE = 1  NTRIAL =   1  T = 360.6060  P =  141855.      V =  1.00000      Q =  0.00000    

  LOOP $OLVER01 ITER   16:   1 VARS NOT CONVERGED, MAX ERR/TOL     -1.6132        TIME =      0.87

      UOS BLOCK B2       MODEL: RADFRAC                                           TIME =      0.87

       Convergence iterations:
         OL   ML   IL     Err/Tol
          1    1    2     0.21945E-02

      UOS BLOCK B1       MODEL: RADFRAC                                           TIME =      0.87

       Convergence iterations:
         OL   ML   IL     Err/Tol
          1    1    6     0.49041E-01

      CONVERGENCE BLOCK $OLVER01  METHOD: BROYDEN                                 TIME =      0.88
      ITER  17 For Tear Streams: VR

  LOOP $OLVER01 ITER   17:     *** CONVERGED *** , MAX ERR/TOL    -0.18253        TIME =      0.88

      GENERATING RESULTS FOR UOS BLOCK EXC1     MODEL: HEATER                     TIME =      0.88

      GENERATING RESULTS FOR UOS BLOCK EXC2     MODEL: HEATER                     TIME =      0.88

 STREAM DCM     
        SUBSTREAM MIXED     F =  1.388888888888892E-02  T =   322.686397763714      P =   141855.000000000    
                            H =  -121816817.535001      V =   0.00000000000000      L =   1.00000000000000    
                            ENTROPY =  -2039.42419016235      DENSITY =   1272.36234756345      MW =   84.9320585698609    
        METHA-01  2.374603039041964E-09  DICHL-01  1.388863732225989E-02  N:N-D-01  2.491920259884775E-07

 STREAM DMF     
        SUBSTREAM MIXED     F =  1.388888888888892E-02  T =   437.855297421522      P =   141855.000000000    
                            H =  -215042339.024262      V =   0.00000000000000      L =   1.00000000000000    
                            ENTROPY =  -5415.23886757884      DENSITY =   797.677149641596      MW =   73.0943840156935    
        METHA-01  1.136879830851538E-07  DICHL-01  6.200988612581133E-11  N:N-D-01  1.388877513889595E-02

 STREAM VR      
        SUBSTREAM MIXED     F =  1.611111111111114E-02  T =   360.605887376455      P =   141855.000000000    
                            H =  -197739489.703025      V =   1.00000000000000      L =   0.00000000000000    
                            ENTROPY =  -3862.89774259861      DENSITY =   1.56419249277068      MW =   33.0602231997967    
        METHA-01  1.571164596836168E-02  DICHL-01  2.587179644195590E-07  N:N-D-01  3.992064247850463E-04

 STREAM MEOH    
        SUBSTREAM MIXED     F =  1.388888888888892E-02  T =   346.488463559621      P =   141855.000000000    
                            H =  -233418577.514604      V =   0.00000000000000      L =   1.00000000000000    
                            ENTROPY =  -7040.02695852525      DENSITY =   732.544582805356      MW =   32.0431186607948    
        METHA-01  1.388863714559052E-02  DICHL-01  2.517432983949937E-07  N:N-D-01  5.882497314425044E-31

 STREAM S1      
        SUBSTREAM MIXED     F =  2.222222222222226E-03  T =   352.444498597073      P =   141855.000000000    
                            H =  -232055696.025357      V =   0.00000000000000      L =   1.00000000000000    
                            ENTROPY =  -6500.57449699139      DENSITY =   764.429331796757      MW =   39.4171265687560    
        METHA-01  1.823008822760464E-03  DICHL-01  6.974666023673197E-09  N:N-D-01  3.992064247957383E-04


*** INPUT SPECIFICATION MESSAGES ***

 CHANGES WERE MADE TO BLOCK        B1       08/18/2025   09:54:47:99 
 BLOCK B1 RADFRAC
     SUBOBJECTS INTERNALS = INT
     PARAM NSTAGE=42 ALGORITHM=STANDARD INIT-OPTION=STANDARD  &
         HYDRAULIC=NO MAXOL=200 NPHASE=2 DAMPING=NONE
     PARAM2 STATIC-DP=YES
     COL-CONFIG CONDENSER=TOTAL REBOILER=KETTLE CA-CONFIG=INT-1
     FEEDS S1 35 ON-STAGE / 3 6 ON-STAGE / 5 21 ON-STAGE
     PRODUCTS DCM 1 L / DMF 42 L / VR 35 V MOLE-FLOW=58.
     P-SPEC 1 1.4 <atm>
     COL-SPECS MOLE-D=50. MOLE-RR=0.43
     BLOCK-OPTION FREE-WATER=NO
     REPORT NOHYDRAULIC
     INTERNALS INT STAGE1=2 STAGE2=41 P-UPDATE=NO
     TRAY-SIZE 1 2 41 SIEVE

 BLOCK        B2       IS GENERATED BECAUSE OF OTHER CHANGES 08/18/2025   09:54:47:99 
 BLOCK B2 RADFRAC
     SUBOBJECTS INTERNALS = INT
     PARAM NSTAGE=35 ALGORITHM=STANDARD INIT-OPTION=STANDARD  &
         HYDRAULIC=NO MAXOL=200 NPHASE=2 DAMPING=NONE
     PARAM2 STATIC-DP=YES
     COL-CONFIG CONDENSER=TOTAL REBOILER=NONE CA-CONFIG=INT-1
     FEEDS VR 35 ON-STAGE
     PRODUCTS MEOH 1 L / S1 35 L
     P-SPEC 1 1.4 <ATM>
     COL-SPECS MOLE-D=50.
     BLOCK-OPTION FREE-WATER=NO
     REPORT NOHYDRAULIC
     INTERNALS INT STAGE1=2 STAGE2=35 P-UPDATE=NO
     TRAY-SIZE 1 2 35 SIEVE

 PDF updated                                                                      TIME =   1778.96
 THIS COPY OF ASPEN PLUS LICENSED TO                                 


Calculations begin                                                              time   1779.00


      UOS BLOCK B2       MODEL: RADFRAC                                           TIME =   1779.00

       Convergence iterations:
         OL   ML   IL     Err/Tol
          1    1    1     0.29136E-04

      UOS BLOCK B1       MODEL: RADFRAC                                           TIME =   1779.00

       Convergence iterations:
         OL   ML   IL     Err/Tol
          1    1   10      1055.9    
          2    1   10      1597.9    
          3    1   10      1489.8    
          4    1   10      1394.5    
          5    1   10      2124.6    
          6    1    9      2177.5    
          7    1    6      1490.3    
          8    1   10      1120.3    
          9    1   10      4708.6    
         10    1    8      68888.    
         11    1   10      3031.7    
         12    1   10      1531.0    
         13    1   10      1847.5    
         14    1   10      3063.2    
         15    1    7      2276.2    
         16    1    8      1712.6    
         17    1   10      1165.6    
         18    1   10      2196.9    
         19    1   10      1956.4    
         20    1    8      1076.9    
         21    1    7      924.94    
         22    1    8      782.12    
         23    1   10      3138.9    
         24    1   10      4635.9    
         25    1   10      3364.8    
         26    1    7      1560.4    
         27    1    9      1319.6    
         28    1   10      1070.6    
         29    1   10      1465.3    
         30    1    7      1098.8    
         31    1    6      892.74    
         32    1    9      1208.6    
         33    1    7      1109.5    
         34    1    6      366.87    
         35    1    5      221.70    
         36    1    6      96.215    
         37    1    6      65.781    
         38    1    6      47.856    
         39    1    6      100.19    
         40    1    5      48.896    
         41    1    4      38.498    
         42    1    4      25.503    
         43    1    4      14.676    
         44    1    5      17.057    
         45    1    4      15.098    
         46    1    5      7.1212    
         47    1    4      11.167    
         48    1    4      11.424    
         49    1    4      5.3976    
         50    1    4      8.2044    
         51    1    4      5.6522    
         52    1    5      7.1747    
         53    1    4      1.7186    
         54    1    4      2.0779    
         55    1    4      1.8468    
         56    1    4     0.97207    

      CONVERGENCE BLOCK $OLVER01  METHOD: BROYDEN                                 TIME =   1779.04
      ITER   0 For Tear Streams: VR

      UOS BLOCK B2       MODEL: RADFRAC                                           TIME =   1779.04

       Convergence iterations:
         OL   ML   IL     Err/Tol
          1    1    4      58.440    
          2    1    2      2.5168    
          3    1    2     0.89699E-01

      UOS BLOCK B1       MODEL: RADFRAC                                           TIME =   1779.04

       Convergence iterations:
         OL   ML   IL     Err/Tol
          1    1   10      9.0097    
          2    1    4      2.3653    
          3    1   10      1.7543    
          4    1    9      3.4571    
          5    1    7      4.2016    
          6    1    6      8.0197    
          7    1    5      5.6037    
          8    1    5      2.0457    
          9    1    6      1.5595    
         10    1    8      1.0352    
         11    1    6     0.71324    

      CONVERGENCE BLOCK $OLVER01  METHOD: BROYDEN                                 TIME =   1779.05
      ITER   1 For Tear Streams: VR

      --FLASH TEAR STREAM VR      
      NO. TEMP ITER =    4     TEMP =  357.075    
      KODE = 1  NTRIAL =   4  T = 357.0749  P =  141855.      V =  1.00000      Q =  0.00000    

  LOOP $OLVER01 ITER    1:   4 VARS NOT CONVERGED, MAX ERR/TOL      304.21        TIME =   1779.05

      UOS BLOCK B2       MODEL: RADFRAC                                           TIME =   1779.05

       Convergence iterations:
         OL   ML   IL     Err/Tol
          1    1    3      1.5463    
          2    1    2     0.69297E-01

      UOS BLOCK B1       MODEL: RADFRAC                                           TIME =   1779.05

       Convergence iterations:
         OL   ML   IL     Err/Tol
          1    1   10      1.0018    
          2    1    8      1.1727    
          3    1   10      1.9066    
          4    1   10      2.8424    
          5    1    7      7.2333    
          6    1    5      8.9230    
          7    1    7      18.924    
          8    1    4      12.093    
          9    1    7      4.8520    
         10    1    6      2.3200    
         11    1    6      2.5356    
         12    1    7      2.4418    
         13    1    6      1.7877    
         14    1    5      2.2377    
         15    1    5     0.84267    

      CONVERGENCE BLOCK $OLVER01  METHOD: BROYDEN                                 TIME =   1779.06
      ITER   2 For Tear Streams: VR

      --FLASH TEAR STREAM VR      
      KODE = 1  NTRIAL =   7  T = 353.7893  P =  141855.      V = 0.999967      Q =  0.00000    

  LOOP $OLVER01 ITER    2:   4 VARS NOT CONVERGED, MAX ERR/TOL     -729.44        TIME =   1779.06

      UOS BLOCK B2       MODEL: RADFRAC                                           TIME =   1779.06

       Convergence iterations:
         OL   ML   IL     Err/Tol
          1    1    3     0.79171    

      UOS BLOCK B1       MODEL: RADFRAC                                           TIME =   1779.07

       Convergence iterations:
         OL   ML   IL     Err/Tol
          1    1   10      1.4714    
          2    1    9      1.7307    
          3    1   10      2.8376    
          4    1    8      4.6686    
          5    1    7      5.9755    
          6    1    6      9.9270    
          7    1    5      3.4141    
          8    1    6      1.8116    
          9    1    5      1.5670    
         10    1    6      1.1002    
         11    1    5     0.75903    

      CONVERGENCE BLOCK $OLVER01  METHOD: BROYDEN                                 TIME =   1779.11
      ITER   3 For Tear Streams: VR

      --FLASH TEAR STREAM VR      
      KODE = 1  NTRIAL =   2  T = 353.7795  P =  141855.      V = 0.999995      Q =  0.00000    

  LOOP $OLVER01 ITER    3:   4 VARS NOT CONVERGED, MAX ERR/TOL     -17.524        TIME =   1779.11

      UOS BLOCK B2       MODEL: RADFRAC                                           TIME =   1779.11

       Convergence iterations:
         OL   ML   IL     Err/Tol
          1    1    2     0.45762E-01

      UOS BLOCK B1       MODEL: RADFRAC                                           TIME =   1779.11

       Convergence iterations:
         OL   ML   IL     Err/Tol
          1    1   10     0.78532    
          2    1   10      1.0628    
          3    1   10      1.2188    
          4    1    8      2.8316    
          5    1    5      3.7658    
          6    1    8      8.3004    
          7    1    5      5.1665    
          8    1    5      2.0326    
          9    1    5      1.1600    
         10    1    7     0.86364    

      CONVERGENCE BLOCK $OLVER01  METHOD: BROYDEN                                 TIME =   1779.12
      ITER   4 For Tear Streams: VR

      --FLASH TEAR STREAM VR      
      KODE = 1  NTRIAL =   1  T = 353.7780  P =  141855.      V =  1.00000      Q =  0.00000    

  LOOP $OLVER01 ITER    4:   2 VARS NOT CONVERGED, MAX ERR/TOL     -3.9288        TIME =   1779.12

      UOS BLOCK B2       MODEL: RADFRAC                                           TIME =   1779.12

       Convergence iterations:
         OL   ML   IL     Err/Tol
          1    1    2     0.89054E-02

      UOS BLOCK B1       MODEL: RADFRAC                                           TIME =   1779.13

       Convergence iterations:
         OL   ML   IL     Err/Tol
          1    1   10      1.2433    
          2    1   10      1.3882    
          3    1    9      2.7522    
          4    1    7      4.3336    
          5    1    6      9.3427    
          6    1    5      6.3552    
          7    1    5      3.8999    
          8    1    5      1.0512    
          9    1    7      1.3364    
         10    1    7      1.9246    
         11    1    6      1.5106    
         12    1    5      1.5796    
         13    1    6     0.88912    

      CONVERGENCE BLOCK $OLVER01  METHOD: BROYDEN                                 TIME =   1779.14
      ITER   5 For Tear Streams: VR

      --FLASH TEAR STREAM VR      
      KODE = 1  NTRIAL =   1  T = 353.7774  P =  141855.      V =  1.00000      Q =  0.00000    

  LOOP $OLVER01 ITER    5:   1 VARS NOT CONVERGED, MAX ERR/TOL      1.2254        TIME =   1779.14

      UOS BLOCK B2       MODEL: RADFRAC                                           TIME =   1779.14

       Convergence iterations:
         OL   ML   IL     Err/Tol
          1    1    1     0.32863E-02

      UOS BLOCK B1       MODEL: RADFRAC                                           TIME =   1779.14

       Convergence iterations:
         OL   ML   IL     Err/Tol
          1    1   10      1.0123    
          2    1   10      1.6537    
          3    1    8      2.4612    
          4    1    9      3.7578    
          5    1    7      5.7740    
          6    1    6      2.2849    
          7    1    6      1.2317    
          8    1    6      1.1133    
          9    1    6     0.87055    

      CONVERGENCE BLOCK $OLVER01  METHOD: BROYDEN                                 TIME =   1779.15
      ITER   6 For Tear Streams: VR

      --FLASH TEAR STREAM VR      
      KODE = 1  NTRIAL =   1  T = 353.7783  P =  141855.      V =  1.00000      Q =  0.00000    

  LOOP $OLVER01 ITER    6:   2 VARS NOT CONVERGED, MAX ERR/TOL      1.8537        TIME =   1779.15

      UOS BLOCK B2       MODEL: RADFRAC                                           TIME =   1779.15

       Convergence iterations:
         OL   ML   IL     Err/Tol
          1    1    1     0.20721E-02

      UOS BLOCK B1       MODEL: RADFRAC                                           TIME =   1779.15

       Convergence iterations:
         OL   ML   IL     Err/Tol
          1    1   10     0.53235    
          2    1    8     0.96142    

      CONVERGENCE BLOCK $OLVER01  METHOD: BROYDEN                                 TIME =   1779.16
      ITER   7 For Tear Streams: VR

  LOOP $OLVER01 ITER    7:     *** CONVERGED *** , MAX ERR/TOL     0.62709        TIME =   1779.16

 STREAM DCM     
        SUBSTREAM MIXED     F =  1.388888888888892E-02  T =   324.074369506784      P =   141855.000000000    
                            H =  -138030889.298809      V =   0.00000000000000      L =   1.00000000000000    
                            ENTROPY =  -2437.48501333988      DENSITY =   1190.33814060561      MW =   80.8480426537145    
        METHA-01  7.001434949277797E-04  DICHL-01  1.152498654209807E-02  N:N-D-01  1.663758851863062E-03

 STREAM DMF     
        SUBSTREAM MIXED     F =  1.388888888888891E-02  T =   411.116742677087      P =   141855.000000000    
                            H =  -220573110.618236      V =   0.00000000000000      L =   1.00000000000000    
                            ENTROPY =  -5567.64769375474      DENSITY =   811.743495271386      MW =   68.1770964925486    
        METHA-01  1.663747502888093E-03  DICHL-01  6.485245121564236E-08  N:N-D-01  1.222507653354961E-02

 STREAM VR      
        SUBSTREAM MIXED     F =  1.611111111111114E-02  T =   353.777906289693      P =   141855.000000000    
                            H =  -182186326.249368      V =   1.00000000000000      L =   0.00000000000000    
                            ENTROPY =  -2879.29040811850      DENSITY =   1.96000741440494      MW =   40.6411333093021    
        METHA-01  1.343955053134627E-02  DICHL-01  2.438392154566689E-03  N:N-D-01  2.331684251981818E-04

 STREAM MEOH    
        SUBSTREAM MIXED     F =  1.388888888888892E-02  T =   333.055595028825      P =   141855.000000000    
                            H =  -215432670.177051      V =   0.00000000000000      L =   1.00000000000000    
                            ENTROPY =  -5281.56093635141      DENSITY =   879.739330861811      MW =   41.0433202690143    
        METHA-01  1.152519383870902E-02  DICHL-01  2.363695050179898E-03  N:N-D-01  2.780374936951177E-33

 STREAM S1      
        SUBSTREAM MIXED     F =  2.222222222222223E-03  T =   346.244282969415      P =   141855.000000000    
                            H =  -229109900.254486      V =   0.00000000000000      L =   1.00000000000000    
                            ENTROPY =  -6316.09947622266      DENSITY =   780.554871366755      MW =   38.1274648114153    
        METHA-01  1.914356692629664E-03  DICHL-01  7.469710441953924E-05  N:N-D-01  2.331684251730198E-04

 STREAM 3       
        SUBSTREAM MIXED     F =  1.388888888888892E-02  T =   437.857670967721      P =   141855.000000000    
                            H =  -215041838.544824      V =   0.00000000000000      L =   1.00000000000000    
                            ENTROPY =  -5415.23463404538      DENSITY =   797.675498940533      MW =   73.0947202005406    
        METHA-01  2.361111070932091E-13  DICHL-01  2.361111070932091E-10  N:N-D-01  1.388888865254170E-02

 STREAM 5       
        SUBSTREAM MIXED     F =  2.777777777777783E-02  T =   322.068299832661      P =   141855.000000000    
                            H =  -178698777.525064      V =   0.00000000000000      L =   1.00000000000000    
                            ENTROPY =  -3407.26650638515      DENSITY =   1089.81631386620      MW =   58.4872200000000    
        METHA-01  1.388888888888892E-02  DICHL-01  1.388888888888892E-02  N:N-D-01   0.00000000000000    


*** INPUT SPECIFICATION MESSAGES ***

 CHANGES WERE MADE TO BLOCK        EXC1     08/18/2025   09:57:34:99 
 BLOCK EXC1 HEATER
     PARAM PRES=1.44 <atm> VFRAC=0. DPPARMOPT=NO

 CHANGES WERE MADE TO BLOCK        EXC2     08/18/2025   09:57:34:99 
 BLOCK EXC2 HEATER
     PARAM PRES=1.49 <atm> VFRAC=0. DPPARMOPT=NO

 BLOCK        B1       IS GENERATED BECAUSE OF OTHER CHANGES 08/18/2025   09:57:34:99 
 BLOCK B1 RADFRAC
     SUBOBJECTS INTERNALS = INT
     PARAM NSTAGE=42 ALGORITHM=STANDARD INIT-OPTION=STANDARD  &
         HYDRAULIC=NO MAXOL=200 NPHASE=2 DAMPING=NONE
     PARAM2 STATIC-DP=YES
     COL-CONFIG CONDENSER=TOTAL REBOILER=KETTLE CA-CONFIG=INT-1
     FEEDS S1 35 ON-STAGE / 3 6 ON-STAGE / 5 21 ON-STAGE
     PRODUCTS DCM 1 L / DMF 42 L / VR 35 V MOLE-FLOW=58.
     P-SPEC 1 1.4 <atm>
     COL-SPECS MOLE-D=50. MOLE-RR=0.43
     BLOCK-OPTION FREE-WATER=NO
     REPORT NOHYDRAULIC
     INTERNALS INT STAGE1=2 STAGE2=41 P-UPDATE=NO
     TRAY-SIZE 1 2 41 SIEVE

 BLOCK        B2       IS GENERATED BECAUSE OF OTHER CHANGES 08/18/2025   09:57:34:99 
 BLOCK B2 RADFRAC
     SUBOBJECTS INTERNALS = INT
     PARAM NSTAGE=35 ALGORITHM=STANDARD INIT-OPTION=STANDARD  &
         HYDRAULIC=NO MAXOL=200 NPHASE=2 DAMPING=NONE
     PARAM2 STATIC-DP=YES
     COL-CONFIG CONDENSER=TOTAL REBOILER=NONE CA-CONFIG=INT-1
     FEEDS VR 35 ON-STAGE
     PRODUCTS MEOH 1 L / S1 35 L
     P-SPEC 1 1.4 <ATM>
     COL-SPECS MOLE-D=50.
     BLOCK-OPTION FREE-WATER=NO
     REPORT NOHYDRAULIC
     INTERNALS INT STAGE1=2 STAGE2=35 P-UPDATE=NO
     TRAY-SIZE 1 2 35 SIEVE

 TITLE        IS  NEW 08/18/2025   09:57:34:99 
 TITLE

 PDF updated                                                                      TIME =   1945.62
 THIS COPY OF ASPEN PLUS LICENSED TO                                 


Calculations begin                                                              time   1945.65


      UOS BLOCK EXC2     MODEL: HEATER                                            TIME =   1945.65
      KODE = 3  NTRIAL =   5  T = 323.8735  P =  150974.      V =  0.00000      Q = -777014.    

      UOS BLOCK EXC1     MODEL: HEATER                                            TIME =   1945.65
      KODE = 3  NTRIAL =   4  T = 438.9832  P =  145908.      V =  0.00000      Q =  278746.    

      CONVERGENCE BLOCK $OLVER01  METHOD: BROYDEN                                 TIME =   1945.65
      ITER   0 For Tear Streams: VR

      UOS BLOCK B2       MODEL: RADFRAC                                           TIME =   1945.65

       Convergence iterations:
         OL   ML   IL     Err/Tol
          1    1    1     0.78348E-04

      UOS BLOCK B1       MODEL: RADFRAC                                           TIME =   1945.65

       Convergence iterations:
         OL   ML   IL     Err/Tol
          1    1   10      16.713    
          2    1    7      9.9051    
          3    1    7      7.3223    
          4    1    9      7.5485    
          5    1    9      3.5826    
          6    1    7      4.3075    
          7    1    7      2.8837    
          8    1    7      1.7644    
          9    1    8      2.8332    
         10    1    6      2.2658    
         11    1    5      1.2416    
         12    1    6     0.51784    

      CONVERGENCE BLOCK $OLVER01  METHOD: BROYDEN                                 TIME =   1945.66
      ITER   1 For Tear Streams: VR

      --FLASH TEAR STREAM VR      
      KODE = 1  NTRIAL =   7  T = 353.8754  P =  141855.      V = 0.999910      Q =  0.00000    

  LOOP $OLVER01 ITER    1:   4 VARS NOT CONVERGED, MAX ERR/TOL      214.95        TIME =   1945.66

      UOS BLOCK B2       MODEL: RADFRAC                                           TIME =   1945.66

       Convergence iterations:
         OL   ML   IL     Err/Tol
          1    1    3     0.26370    

      UOS BLOCK B1       MODEL: RADFRAC                                           TIME =   1945.67

       Convergence iterations:
         OL   ML   IL     Err/Tol
          1    1   10      1.0884    
          2    1   10      1.2324    
          3    1    9      2.1989    
          4    1    5      3.4273    
          5    1    5      6.9814    
          6    1    5      4.8614    
          7    1    5      2.6809    
          8    1    5     0.79194    

      CONVERGENCE BLOCK $OLVER01  METHOD: BROYDEN                                 TIME =   1945.67
      ITER   2 For Tear Streams: VR

      --FLASH TEAR STREAM VR      
      KODE = 1  NTRIAL =   3  T = 353.8037  P =  141855.      V = 0.999915      Q =  0.00000    

  LOOP $OLVER01 ITER    2:   4 VARS NOT CONVERGED, MAX ERR/TOL      177.20        TIME =   1945.67

      UOS BLOCK B2       MODEL: RADFRAC                                           TIME =   1945.67

       Convergence iterations:
         OL   ML   IL     Err/Tol
          1    1    2     0.44424    

      UOS BLOCK B1       MODEL: RADFRAC                                           TIME =   1945.67

       Convergence iterations:
         OL   ML   IL     Err/Tol
          1    1   10      1.8281    
          2    1    8      1.5799    
          3    1    8      2.1594    
          4    1    8      3.6840    
          5    1    6      1.6624    
          6    1    7      1.4060    
          7    1    5     0.70531    

      CONVERGENCE BLOCK $OLVER01  METHOD: BROYDEN                                 TIME =   1945.68
      ITER   3 For Tear Streams: VR

      --FLASH TEAR STREAM VR      
      KODE = 1  NTRIAL =   3  T = 353.7390  P =  141855.      V = 0.999969      Q =  0.00000    

  LOOP $OLVER01 ITER    3:   4 VARS NOT CONVERGED, MAX ERR/TOL     -104.40        TIME =   1945.68

      UOS BLOCK B2       MODEL: RADFRAC                                           TIME =   1945.68

       Convergence iterations:
         OL   ML   IL     Err/Tol
          1    1    2     0.39380    

      UOS BLOCK B1       MODEL: RADFRAC                                           TIME =   1945.74

       Convergence iterations:
         OL   ML   IL     Err/Tol
          1    1   10     0.96720    
          2    1    8     0.72149    

      CONVERGENCE BLOCK $OLVER01  METHOD: BROYDEN                                 TIME =   1945.74
      ITER   4 For Tear Streams: VR

      --FLASH TEAR STREAM VR      
      KODE = 1  NTRIAL =   2  T = 353.7117  P =  141855.      V = 0.999996      Q =  0.00000    

  LOOP $OLVER01 ITER    4:   4 VARS NOT CONVERGED, MAX ERR/TOL      35.338        TIME =   1945.74

      UOS BLOCK B2       MODEL: RADFRAC                                           TIME =   1945.74

       Convergence iterations:
         OL   ML   IL     Err/Tol
          1    1    2     0.19692    

      UOS BLOCK B1       MODEL: RADFRAC                                           TIME =   1945.74

       Convergence iterations:
         OL   ML   IL     Err/Tol
          1    1   10     0.92994    
          2    1    9     0.64095    

      CONVERGENCE BLOCK $OLVER01  METHOD: BROYDEN                                 TIME =   1945.75
      ITER   5 For Tear Streams: VR

      --FLASH TEAR STREAM VR      
      NO. TEMP ITER =    1     TEMP =  353.708    
      KODE = 1  NTRIAL =   1  T = 353.7085  P =  141855.      V =  1.00000      Q =  0.00000    

  LOOP $OLVER01 ITER    5:   1 VARS NOT CONVERGED, MAX ERR/TOL     -4.6050        TIME =   1945.75

      UOS BLOCK B2       MODEL: RADFRAC                                           TIME =   1945.75

       Convergence iterations:
         OL   ML   IL     Err/Tol
          1    1    2     0.11772E-01

      UOS BLOCK B1       MODEL: RADFRAC                                           TIME =   1945.75

       Convergence iterations:
         OL   ML   IL     Err/Tol
          1    1   10     0.87920    
          2    1   10     0.90480    

      CONVERGENCE BLOCK $OLVER01  METHOD: BROYDEN                                 TIME =   1945.75
      ITER   6 For Tear Streams: VR

      --FLASH TEAR STREAM VR      
      KODE = 1  NTRIAL =   7  T = 353.7065  P =  141855.      V =  1.00000      Q =  0.00000    

  LOOP $OLVER01 ITER    6:   3 VARS NOT CONVERGED, MAX ERR/TOL      4.0020        TIME =   1945.75

      UOS BLOCK B2       MODEL: RADFRAC                                           TIME =   1945.75

       Convergence iterations:
         OL   ML   IL     Err/Tol
          1    1    2     0.23182E-01

      UOS BLOCK B1       MODEL: RADFRAC                                           TIME =   1945.76

       Convergence iterations:
         OL   ML   IL     Err/Tol
          1    1   10     0.94909    
          2    1    8      1.0760    
          3    1   10      2.2832    
          4    1    6      2.4159    
          5    1    7      5.4533    
          6    1    7      6.9155    
          7    1    6      3.5519    
          8    1    5      1.7782    
          9    1    6      1.4975    
         10    1    7      1.2983    
         11    1    5     0.54670    

      CONVERGENCE BLOCK $OLVER01  METHOD: BROYDEN                                 TIME =   1945.77
      ITER   7 For Tear Streams: VR

      --FLASH TEAR STREAM VR      
      KODE = 1  NTRIAL =   1  T = 353.7074  P =  141855.      V =  1.00000      Q =  0.00000    

  LOOP $OLVER01 ITER    7:   1 VARS NOT CONVERGED, MAX ERR/TOL     -1.4917        TIME =   1945.77

      UOS BLOCK B2       MODEL: RADFRAC                                           TIME =   1945.77

       Convergence iterations:
         OL   ML   IL     Err/Tol
          1    1    1     0.59193E-02

      UOS BLOCK B1       MODEL: RADFRAC                                           TIME =   1945.77

       Convergence iterations:
         OL   ML   IL     Err/Tol
          1    1   10     0.80705    
          2    1   10     0.96711    
          3    1    9      1.8600    
          4    1    7      2.4004    
          5    1    5      4.9224    
          6    1    5      3.4127    
          7    1    5      1.7487    
          8    1    5     0.64830    

      CONVERGENCE BLOCK $OLVER01  METHOD: BROYDEN                                 TIME =   1945.78
      ITER   8 For Tear Streams: VR

      --FLASH TEAR STREAM VR      
      NO. TEMP ITER =    1     TEMP =  353.706    
      KODE = 1  NTRIAL =   1  T = 353.7061  P =  141855.      V =  1.00000      Q =  0.00000    

  LOOP $OLVER01 ITER    8:   1 VARS NOT CONVERGED, MAX ERR/TOL     -2.4288        TIME =   1945.78

      UOS BLOCK B2       MODEL: RADFRAC                                           TIME =   1945.78

       Convergence iterations:
         OL   ML   IL     Err/Tol
          1    1    1     0.30008E-02

      UOS BLOCK B1       MODEL: RADFRAC                                           TIME =   1945.78

       Convergence iterations:
         OL   ML   IL     Err/Tol
          1    1   10      1.3109    
          2    1   10      1.1683    
          3    1    7      2.1267    
          4    1    7      3.0364    
          5    1    5      1.8707    
          6    1    6      1.4479    
          7    1    7     0.85549    

      CONVERGENCE BLOCK $OLVER01  METHOD: BROYDEN                                 TIME =   1945.79
      ITER   9 For Tear Streams: VR

      --FLASH TEAR STREAM VR      
      KODE = 1  NTRIAL =   7  T = 353.7059  P =  141855.      V =  1.00000      Q =  0.00000    

  LOOP $OLVER01 ITER    9:   3 VARS NOT CONVERGED, MAX ERR/TOL     -4.8053        TIME =   1945.79

      UOS BLOCK B2       MODEL: RADFRAC                                           TIME =   1945.79

       Convergence iterations:
         OL   ML   IL     Err/Tol
          1    1    1     0.14880E-02

      UOS BLOCK B1       MODEL: RADFRAC                                           TIME =   1945.79

       Convergence iterations:
         OL   ML   IL     Err/Tol
          1    1   10      1.0005    
          2    1   10     0.90021    
          3    1    9      1.9105    
          4    1    6      1.8559    
          5    1    8      3.0560    
          6    1    5     0.89556    

      CONVERGENCE BLOCK $OLVER01  METHOD: BROYDEN                                 TIME =   1945.80
      ITER  10 For Tear Streams: VR

      --FLASH TEAR STREAM VR      
      KODE = 1  NTRIAL =   1  T = 353.7072  P =  141855.      V =  1.00000      Q =  0.00000    

  LOOP $OLVER01 ITER   10:   1 VARS NOT CONVERGED, MAX ERR/TOL      1.7181        TIME =   1945.80

      UOS BLOCK B2       MODEL: RADFRAC                                           TIME =   1945.80

       Convergence iterations:
         OL   ML   IL     Err/Tol
          1    1    2     0.18077E-02

      UOS BLOCK B1       MODEL: RADFRAC                                           TIME =   1945.80

       Convergence iterations:
         OL   ML   IL     Err/Tol
          1    1   10      1.1215    
          2    1   10     0.97911    

      CONVERGENCE BLOCK $OLVER01  METHOD: BROYDEN                                 TIME =   1945.80
      ITER  11 For Tear Streams: VR

      --FLASH TEAR STREAM VR      
      KODE = 1  NTRIAL =   1  T = 353.7071  P =  141855.      V =  1.00000      Q =  0.00000    

  LOOP $OLVER01 ITER   11:   1 VARS NOT CONVERGED, MAX ERR/TOL     -2.2172        TIME =   1945.80

      UOS BLOCK B2       MODEL: RADFRAC                                           TIME =   1945.81

       Convergence iterations:
         OL   ML   IL     Err/Tol
          1    1    1     0.28313E-03

      UOS BLOCK B1       MODEL: RADFRAC                                           TIME =   1945.81

       Convergence iterations:
         OL   ML   IL     Err/Tol
          1    1   10      1.1795    
          2    1    8     0.78759    

      CONVERGENCE BLOCK $OLVER01  METHOD: BROYDEN                                 TIME =   1945.81
      ITER  12 For Tear Streams: VR

  LOOP $OLVER01 ITER   12:     *** CONVERGED *** , MAX ERR/TOL     0.75998        TIME =   1945.81

      GENERATING RESULTS FOR UOS BLOCK EXC1     MODEL: HEATER                     TIME =   1945.81

      GENERATING RESULTS FOR UOS BLOCK EXC2     MODEL: HEATER                     TIME =   1945.81

 STREAM 3       
        SUBSTREAM MIXED     F =  1.388888888888892E-02  T =   438.983202828393      P =   145908.000000000    
                            H =  -214821412.753011      V =   0.00000000000000      L =   1.00000000000000    
                            ENTROPY =  -5408.46531182076      DENSITY =   796.354154800462      MW =   73.0947202005406    
        METHA-01  2.361111070932091E-13  DICHL-01  2.361111070932091E-10  N:N-D-01  1.388888865254170E-02

 STREAM 5       
        SUBSTREAM MIXED     F =  2.777777777777783E-02  T =   323.873521864001      P =   150974.250000000    
                            H =  -178497650.126647      V =   0.00000000000000      L =   1.00000000000000    
                            ENTROPY =  -3396.98246557586      DENSITY =   1086.66795764552      MW =   58.4872200000000    
        METHA-01  1.388888888888892E-02  DICHL-01  1.388888888888892E-02  N:N-D-01   0.00000000000000    

 STREAM DCM     
        SUBSTREAM MIXED     F =  1.388888888888892E-02  T =   324.132964540658      P =   141855.000000000    
                            H =  -138390335.280446      V =   0.00000000000000      L =   1.00000000000000    
                            ENTROPY =  -2448.06956566362      DENSITY =   1188.39348613179      MW =   80.7855189933378    
        METHA-01  7.060297378445815E-04  DICHL-01  1.147204160822811E-02  N:N-D-01  1.710817542816225E-03

 STREAM DMF     
        SUBSTREAM MIXED     F =  1.388888888888892E-02  T =   410.531997446116      P =   141855.000000000    
                            H =  -220692131.603054      V =   0.00000000000000      L =   1.00000000000000    
                            ENTROPY =  -5571.56252229707      DENSITY =   811.927086861669      MW =   68.0379833838421    
        METHA-01  1.710812811174578E-03  DICHL-01  6.695445010883003E-08  N:N-D-01  1.217800912326423E-02

 STREAM VR      
        SUBSTREAM MIXED     F =  1.611111111111114E-02  T =   353.706792999860      P =   141855.000000000    
                            H =  -181830285.158815      V =   1.00000000000000      L =   0.00000000000000    
                            ENTROPY =  -2862.15167087048      DENSITY =   1.96903060703987      MW =   40.8198905074093    
        METHA-01  1.338519386094024E-02  DICHL-01  2.493175117218810E-03  N:N-D-01  2.327421329520945E-04

 STREAM MEOH    
        SUBSTREAM MIXED     F =  1.388888888888892E-02  T =   332.835709435465      P =   141855.000000000    
                            H =  -215019838.473196      V =   0.00000000000000      L =   1.00000000000000    
                            ENTROPY =  -5251.13331834376      DENSITY =   882.698208073628      MW =   41.2447947844668    
        METHA-01  1.147228684664581E-02  DICHL-01  2.416602042243111E-03  N:N-D-01  2.422445726366359E-33

 STREAM S1      
        SUBSTREAM MIXED     F =  2.222222222222226E-03  T =   346.156076653748      P =   141855.000000000    
                            H =  -229022295.599326      V =   0.00000000000000      L =   1.00000000000000    
                            ENTROPY =  -6307.88074509708      DENSITY =   781.223132724894      MW =   38.1642386626967    
        METHA-01  1.912907017134027E-03  DICHL-01  7.657306359092765E-05  N:N-D-01  2.327421414972712E-04


*** INPUT SPECIFICATION MESSAGES ***

 FLOWSHEET    IS GENERATED BECAUSE OF OTHER CHANGES 08/18/2025   13:00:23:99 
 FLOWSHEET
     BLOCK B1 IN=S1 3 5 OUT=DCM DMF VR
     BLOCK B2 IN=VR OUT=MEOH S1
     BLOCK EXC1 IN=SOLVENT OUT=3
     BLOCK EXC2 IN=FEED OUT=5

 CHANGES WERE MADE TO BLOCK        B1       08/18/2025   13:00:23:99 
 BLOCK B1 RADFRAC
     SUBOBJECTS INTERNALS = INT
     PARAM NSTAGE=42 ALGORITHM=STANDARD INIT-OPTION=STANDARD  &
         HYDRAULIC=NO MAXOL=200 NPHASE=2 DAMPING=NONE
     PARAM2 STATIC-DP=YES
     COL-CONFIG CONDENSER=TOTAL REBOILER=KETTLE CA-CONFIG=INT-1
     FEEDS S1 38 ON-STAGE / 3 4 ON-STAGE / 5 34 ON-STAGE
     PRODUCTS DCM 1 L / DMF 42 L / VR 38 V MOLE-FLOW=52.5
     P-SPEC 1 1.4 <atm>
     COL-SPECS MOLE-D=50. MOLE-RR=4.2
     BLOCK-OPTION FREE-WATER=NO
     REPORT NOHYDRAULIC
     INTERNALS INT STAGE1=2 STAGE2=41 P-UPDATE=NO
     TRAY-SIZE 1 2 41 SIEVE

 CHANGES WERE MADE TO BLOCK        B2       08/18/2025   13:00:23:99 
 BLOCK B2 RADFRAC
     SUBOBJECTS INTERNALS = INT
     PARAM NSTAGE=38 ALGORITHM=STANDARD INIT-OPTION=STANDARD  &
         HYDRAULIC=NO MAXOL=200 NPHASE=2 DAMPING=NONE
     PARAM2 STATIC-DP=YES
     COL-CONFIG CONDENSER=TOTAL REBOILER=NONE CA-CONFIG=INT-1
     FEEDS VR 38 ON-STAGE
     PRODUCTS MEOH 1 L / S1 38 L
     P-SPEC 1 1.4 <atm>
     COL-SPECS MOLE-D=50.
     BLOCK-OPTION FREE-WATER=NO
     REPORT NOHYDRAULIC
     INTERNALS INT STAGE1=2 STAGE2=35 P-UPDATE=NO
     TRAY-SIZE 1 2 35 SIEVE

 PDF updated                                                                      TIME =  12914.53
 THIS COPY OF ASPEN PLUS LICENSED TO                                 


Calculations begin                                                              time  12914.59


      UOS BLOCK B2       MODEL: RADFRAC                                           TIME =  12914.59

       Convergence iterations:
         OL   ML   IL     Err/Tol
          1    1    3      3.0209    
          2    1    2     0.92771E-01

      UOS BLOCK B1       MODEL: RADFRAC                                           TIME =  12914.60

       Convergence iterations:
         OL   ML   IL     Err/Tol
          1    1   10      1853.0    
          2    1    7      1110.2    
          3    1    6      416.74    
          4    1    5      218.70    
          5    1    4      46.360    
          6    1    3      20.151    
          7    1    4      3.6821    
          8    1    4      1.2186    
          9    1    3     0.61076    

      CONVERGENCE BLOCK $OLVER01  METHOD: BROYDEN                                 TIME =  12914.61
      ITER   0 For Tear Streams: VR

      UOS BLOCK B2       MODEL: RADFRAC                                           TIME =  12914.61

       Convergence iterations:
         OL   ML   IL     Err/Tol
          1    1    5      32.839    
          2    1    3      2.3942    
          3    1    3      1.1474    
          4    1    3     0.24666E-01

      UOS BLOCK B1       MODEL: RADFRAC                                           TIME =  12914.62

       Convergence iterations:
         OL   ML   IL     Err/Tol
          1    1   10      1373.2    
          2    1    5      429.67    
          3    1    4      178.24    
          4    1    5      144.64    
          5    1    4      146.14    
          6    1    4      94.480    
          7    1    4      52.837    
          8    1   10      53.068    
          9    1    9      26.118    
         10    1    5      17.866    
         11    1    8      5.9726    
         12    1    4      2.6606    
         13    1    5      1.2185    
         14    1    5     0.36718    

      CONVERGENCE BLOCK $OLVER01  METHOD: BROYDEN                                 TIME =  12914.65
      ITER   1 For Tear Streams: VR

      --FLASH TEAR STREAM VR      
      KODE = 1  NTRIAL =   4  T = 353.3855  P =  141855.      V = 0.996449      Q =  0.00000    

  LOOP $OLVER01 ITER    1:   4 VARS NOT CONVERGED, MAX ERR/TOL     -5224.3        TIME =  12914.65

      UOS BLOCK B2       MODEL: RADFRAC                                           TIME =  12914.65

       Convergence iterations:
         OL   ML   IL     Err/Tol
          1    1    7      31.079    
          2    1   10      146.15    
          3    1   10      855.28    
          4    1    6      822.70    
          5    1   10      106.28    
          6    1   10      913.41    
          7    1    7      910.73    
          8    1    5      113.67    
          9    1   10      117.26    
         10    1   10      161.75    
         11    1   10      600.47    
         12    1   10      781.42    
         13    1    8      219.95    
         14    1    7      95.175    
         15    1   10      211.61    
         16    1   10      204.75    
         17    1   10      165.64    
         18    1   10      183.68    
         19    1   10      148.19    
         20    1   10      161.91    
         21    1   10      120.76    
         22    1   10      98.229    
         23    1   10      94.270    
         24    1    8      94.174    
         25    1    7      10.393    
         26    1    7      9.2258    
         27    1    5      1.7234    
         28    1    6     0.97864    

      UOS BLOCK B1       MODEL: RADFRAC                                           TIME =  12914.69

       Convergence iterations:
         OL   ML   IL     Err/Tol
          1    1   10      38.408    
          2    1    8      10.315    
          3    1    7      2.7045    
          4    1    4     0.85549    

      CONVERGENCE BLOCK $OLVER01  METHOD: BROYDEN                                 TIME =  12914.72
      ITER   2 For Tear Streams: VR

      --FLASH TEAR STREAM VR      
      NO. TEMP ITER =    4     TEMP =  365.250    
      KODE = 1  NTRIAL =   4  T = 365.2503  P =  141855.      V =  1.00000      Q =  0.00000    

  LOOP $OLVER01 ITER    2:   4 VARS NOT CONVERGED, MAX ERR/TOL     -2835.6        TIME =  12914.72

      UOS BLOCK B2       MODEL: RADFRAC                                           TIME =  12914.72

       Convergence iterations:
         OL   ML   IL     Err/Tol
          1    1    7      44.540    
          2    1    3      6.5500    
          3    1    3      3.6336    
          4    1    3      1.4563    
          5    1    3     0.20939    

      UOS BLOCK B1       MODEL: RADFRAC                                           TIME =  12914.72

       Convergence iterations:
         OL   ML   IL     Err/Tol
          1    1   10      41.309    
          2    1    8      15.090    
          3    1    8      3.7481    
          4    1    3      1.1967    
          5    1    5     0.43060    

      CONVERGENCE BLOCK $OLVER01  METHOD: BROYDEN                                 TIME =  12914.73
      ITER   3 For Tear Streams: VR

      --FLASH TEAR STREAM VR      
      KODE = 1  NTRIAL =   6  T = 355.2635  P =  141855.      V = 0.983022      Q =  0.00000    

  LOOP $OLVER01 ITER    3:   4 VARS NOT CONVERGED, MAX ERR/TOL     0.73498E+07    TIME =  12914.73

      UOS BLOCK B2       MODEL: RADFRAC                                           TIME =  12914.74

       Convergence iterations:
         OL   ML   IL     Err/Tol
          1    1   10      713.69    
          2    1    4      635.23    
          3    1   10      287.79    
          4    1    5      33.319    
          5    1    5      8.0157    
          6    1    5      3.1154    
          7    1    4     0.58812    

      UOS BLOCK B1       MODEL: RADFRAC                                           TIME =  12914.75

       Convergence iterations:
         OL   ML   IL     Err/Tol
          1    1   10      68.498    
          2    1   10      13.949    
          3    1    6      3.1759    
          4    1    4      2.9117    
          5    1    4     0.67469    

      CONVERGENCE BLOCK $OLVER01  METHOD: BROYDEN                                 TIME =  12914.75
      ITER   4 For Tear Streams: VR

      --FLASH TEAR STREAM VR      
      KODE = 1  NTRIAL =   4  T = 353.1808  P =  141855.      V = 0.976862      Q =  0.00000    

  LOOP $OLVER01 ITER    4:   4 VARS NOT CONVERGED, MAX ERR/TOL     -3536.7        TIME =  12914.75

      UOS BLOCK B2       MODEL: RADFRAC                                           TIME =  12914.75

       Convergence iterations:
[...]
      KODE = 1  NTRIAL =   6  T = 422.8383  P =  141855.      V = 0.999972      Q =  0.00000    

  LOOP $OLVER01 ITER   51:   4 VARS NOT CONVERGED, MAX ERR/TOL      20.982        TIME =  13786.04

      UOS BLOCK B2       MODEL: RADFRAC                                           TIME =  13786.04

       Convergence iterations:
         OL   ML   IL     Err/Tol
          1    1   10      3314.8    
          2    1   10      1017.7    
          3    1    5      30.948    
          4    1    4      2.4105    
          5    1    4     0.85554    

      UOS BLOCK B1       MODEL: RADFRAC                                           TIME =  13786.05

       Convergence iterations:
         OL   ML   IL     Err/Tol
          1    1    5     0.96715    

      CONVERGENCE BLOCK $OLVER01  METHOD: BROYDEN                                 TIME =  13786.05
      ITER  52 For Tear Streams: VR

      --FLASH TEAR STREAM VR      
      KODE = 1  NTRIAL =   2  T = 422.9308  P =  141855.      V = 0.999991      Q =  0.00000    

  LOOP $OLVER01 ITER   52:   4 VARS NOT CONVERGED, MAX ERR/TOL      45.260        TIME =  13786.05

      UOS BLOCK B2       MODEL: RADFRAC                                           TIME =  13786.06

       Convergence iterations:
         OL   ML   IL     Err/Tol
          1    1    9      82.301    
          2    1    5      40.135    
          3    1    5      13.349    
          4    1    4      2.8170    
          5    1    4     0.78111    

      UOS BLOCK B1       MODEL: RADFRAC                                           TIME =  13786.07

       Convergence iterations:
         OL   ML   IL     Err/Tol
          1    1    5      1.0467    
          2    1    4     0.65541    

      CONVERGENCE BLOCK $OLVER01  METHOD: BROYDEN                                 TIME =  13786.07
      ITER  53 For Tear Streams: VR

      --FLASH TEAR STREAM VR      
      NO. TEMP ITER =    4     TEMP =  423.125    
      KODE = 1  NTRIAL =   2  T = 423.1253  P =  141855.      V =  1.00000      Q =  0.00000    

  LOOP $OLVER01 ITER   53:   4 VARS NOT CONVERGED, MAX ERR/TOL      34.705        TIME =  13786.07

      UOS BLOCK B2       MODEL: RADFRAC                                           TIME =  13786.07

       Convergence iterations:
         OL   ML   IL     Err/Tol
          1    1   10      1593.3    
          2    1   10      1468.3    
          3    1   10      2495.4    
          4    1   10      1305.0    
          5    1   10      2412.5    
          6    1   10      1839.1    
          7    1   10      2291.6    
          8    1   10      1524.0    
          9    1   10      1719.6    
         10    1   10      4266.6    
         11    1   10      3389.6    
         12    1   10      1015.3    
         13    1   10      2272.5    
         14    1   10      2173.1    
         15    1   10      1728.8    
         16    1   10      1831.4    
         17    1   10      1795.7    
         18    1   10      2332.5    
         19    1   10      1621.3    
         20    1   10      2292.1    
         21    1   10      2575.1    
         22    1   10      1446.8    
         23    1   10      1778.6    
         24    1   10      1575.8    
         25    1   10      2246.1    
         26    1   10      1647.0    
         27    1   10      1838.5    
         28    1   10      2162.1    
         29    1   10      1527.5    
         30    1   10      1078.0    
         31    1   10      3094.1    
         32    1   10      2159.5    
         33    1    6      583.59    
         34    1    9      1225.7    
         35    1   10      1873.1    
         36    1   10      1451.9    
         37    1   10      2325.9    
         38    1   10      1728.1    
         39    1   10      2091.8    
         40    1   10      1594.8    
         41    1   10      2201.5    
         42    1   10      1680.4    
         43    1   10      1843.6    
         44    1   10      2077.8    
         45    1   10      2006.4    
         46    1   10      2214.3    
         47    1   10      1762.2    
         48    1   10      805.05    
         49    1   10      737.22    
         50    1   10      2046.5    
         51    1   10      2972.9    
         52    1   10      2227.6    
         53    1   10      3879.8    
         54    1   10      1921.1    
         55    1   10      1226.4    
         56    1   10      1744.0    
         57    1   10      1485.6    
         58    1   10      2026.4    
         59    1   10      1693.1    
         60    1   10      1493.5    
         61    1   10      410.62    
         62    1   10      379.59    
         63    1   10      2231.0    
         64    1   10      1162.3    
         65    1   10      2515.9    
         66    1   10      1814.3    
         67    1   10      515.69    
         68    1   10      811.00    
         69    1   10      232.64    
         70    1   10      104.73    
         71    1    6      48.113    
         72    1    4      2.2691    
         73    1    5     0.57482    

      UOS BLOCK B1       MODEL: RADFRAC                                           TIME =  13786.18

       Convergence iterations:
         OL   ML   IL     Err/Tol
          1    1    7      1.8978    
          2    1    3      1.1874    
          3    1    5      1.4459    
          4    1    3     0.52540    

      CONVERGENCE BLOCK $OLVER01  METHOD: BROYDEN                                 TIME =  13786.19
      ITER  54 For Tear Streams: VR

      --FLASH TEAR STREAM VR      
      KODE = 1  NTRIAL =   6  T = 422.9723  P =  141855.      V = 0.999999      Q =  0.00000    

  LOOP $OLVER01 ITER   54:   4 VARS NOT CONVERGED, MAX ERR/TOL      50.895        TIME =  13786.19

      UOS BLOCK B2       MODEL: RADFRAC                                           TIME =  13786.19

       Convergence iterations:
         OL   ML   IL     Err/Tol
          1    1   10      3105.7    
          2    1   10      1986.7    
          3    1   10      2138.8    
          4    1   10      550.31    
          5    1   10      367.19    
          6    1   10      518.26    
          7    1   10      477.31    
          8    1   10      1365.4    
          9    1   10      1286.4    
         10    1    5      288.92    
         11    1   10      207.85    
         12    1   10      271.19    
         13    1   10      133.94    
         14    1   10      340.81    
         15    1    8      237.36    
         16    1    7      98.485    
         17    1    5      7.9039    
         18    1    7      5.1999    
         19    1   10      4.1293    
         20    1    7     0.47266    

      UOS BLOCK B1       MODEL: RADFRAC                                           TIME =  13786.23

       Convergence iterations:
         OL   ML   IL     Err/Tol
          1    1    6     0.82594    

      CONVERGENCE BLOCK $OLVER01  METHOD: BROYDEN                                 TIME =  13786.23
      ITER  55 For Tear Streams: VR

      --FLASH TEAR STREAM VR      
      KODE = 1  NTRIAL =   2  T = 423.0023  P =  141855.      V =  1.00000      Q =  0.00000    

  LOOP $OLVER01 ITER   55:   4 VARS NOT CONVERGED, MAX ERR/TOL     -44.005        TIME =  13786.23

      UOS BLOCK B2       MODEL: RADFRAC                                           TIME =  13786.24

       Convergence iterations:
         OL   ML   IL     Err/Tol
          1    1   10      503.71    
          2    1   10      557.72    
          3    1   10      394.49    
          4    1   10      1292.1    
          5    1   10      154.33    
          6    1   10      1731.4    
          7    1   10      1727.4    
          8    1   10      1554.0    
          9    1   10      1667.4    
         10    1   10      1172.7    
         11    1   10      1372.9    
         12    1   10      1317.3    
         13    1   10      765.56    
         14    1   10      528.87    
         15    1   10      874.62    
         16    1   10      893.12    
         17    1   10      4063.7    
         18    1    7      2459.1    
         19    1   10      483.25    
         20    1   10      1552.1    
         21    1   10      421.61    
         22    1   10      1933.0    
         23    1   10      537.01    
         24    1   10      1859.7    
         25    1   10      1524.4    
         26    1   10      1748.4    
         27    1   10      1642.6    
         28    1   10      541.32    
         29    1   10      655.05    
         30    1   10      311.43    
         31    1   10      309.65    
         32    1    9      152.37    
         33    1    7      65.932    
         34    1    5      4.0998    
         35    1    6      1.2154    
         36    1    6     0.15000    

      UOS BLOCK B1       MODEL: RADFRAC                                           TIME =  13786.28

       Convergence iterations:
         OL   ML   IL     Err/Tol
          1    1    6      1.4130    
          2    1    4      1.0721    
          3    1    3      1.1748    
          4    1    3     0.37010    

      CONVERGENCE BLOCK $OLVER01  METHOD: BROYDEN                                 TIME =  13786.29
      ITER  56 For Tear Streams: VR

      --FLASH TEAR STREAM VR      
      KODE = 1  NTRIAL =   2  T = 423.0100  P =  141855.      V =  1.00000      Q =  0.00000    

  LOOP $OLVER01 ITER   56:   4 VARS NOT CONVERGED, MAX ERR/TOL      14.819        TIME =  13786.29

      UOS BLOCK B2       MODEL: RADFRAC                                           TIME =  13786.29

       Convergence iterations:
         OL   ML   IL     Err/Tol
          1    1   10      974.27    
          2    1   10      5041.8    
          3    1   10      836.45    
          4    1   10      276.07    
          5    1    8      446.68    
          6    1    8      125.38    
          7    1    6      29.790    
          8    1    8      5.6161    
          9    1    5      1.9318    
         10    1    7     0.10329    

      UOS BLOCK B1       MODEL: RADFRAC                                           TIME =  13786.31

       Convergence iterations:
         OL   ML   IL     Err/Tol
          1    1    4     0.31895    

      CONVERGENCE BLOCK $OLVER01  METHOD: BROYDEN                                 TIME =  13786.32
      ITER  57 For Tear Streams: VR

      --FLASH TEAR STREAM VR      
      NO. TEMP ITER =    1     TEMP =  423.008    
      NO. TEMP ITER =    1     TEMP =  423.008    
      KODE = 1  NTRIAL =   1  T = 423.0076  P =  141855.      V =  1.00000      Q =  0.00000    

  LOOP $OLVER01 ITER   57:   2 VARS NOT CONVERGED, MAX ERR/TOL     -30.120        TIME =  13786.32

      UOS BLOCK B2       MODEL: RADFRAC                                           TIME =  13786.32

       Convergence iterations:
         OL   ML   IL     Err/Tol
          1    1   10      37.281    
          2    1   10      51.906    
          3    1    8      25.054    
          4    1    6      9.6120    
          5    1    6     0.42054    

      UOS BLOCK B1       MODEL: RADFRAC                                           TIME =  13786.33

       Convergence iterations:
         OL   ML   IL     Err/Tol
          1    1    6      1.0929    
          2    1    3     0.75652    

      CONVERGENCE BLOCK $OLVER01  METHOD: BROYDEN                                 TIME =  13786.33
      ITER  58 For Tear Streams: VR

      --FLASH TEAR STREAM VR      
      KODE = 1  NTRIAL =   6  T = 423.0079  P =  141855.      V =  1.00000      Q =  0.00000    

  LOOP $OLVER01 ITER   58:   2 VARS NOT CONVERGED, MAX ERR/TOL      49.767        TIME =  13786.33

      UOS BLOCK B2       MODEL: RADFRAC                                           TIME =  13786.34

       Convergence iterations:
         OL   ML   IL     Err/Tol
          1    1   10      1.9944    
          2    1    9      2.1446    
          3    1    8     0.59461    

      UOS BLOCK B1       MODEL: RADFRAC                                           TIME =  13786.34

       Convergence iterations:
         OL   ML   IL     Err/Tol
          1    1    7      2.4407    
          2    1    3      1.8157    
          3    1    4      2.2125    
          4    1    3     0.60141    

      CONVERGENCE BLOCK $OLVER01  METHOD: BROYDEN                                 TIME =  13786.35
      ITER  59 For Tear Streams: VR

      --FLASH TEAR STREAM VR      
      KODE = 1  NTRIAL =   1  T = 423.0078  P =  141855.      V =  1.00000      Q =  0.00000    

  LOOP $OLVER01 ITER   59:   1 VARS NOT CONVERGED, MAX ERR/TOL     -5.9286        TIME =  13786.35

      UOS BLOCK B2       MODEL: RADFRAC                                           TIME =  13786.35

       Convergence iterations:
         OL   ML   IL     Err/Tol
          1    1   10      1.1605    
          2    1    9      1.4937    
          3    1    9     0.76233    

      UOS BLOCK B1       MODEL: RADFRAC                                           TIME =  13786.36

       Convergence iterations:
         OL   ML   IL     Err/Tol
          1    1    3     0.21619    

      CONVERGENCE BLOCK $OLVER01  METHOD: BROYDEN                                 TIME =  13786.36
      ITER  60 For Tear Streams: VR

      --FLASH TEAR STREAM VR      
      KODE = 1  NTRIAL =   1  T = 423.0078  P =  141855.      V =  1.00000      Q =  0.00000    

  LOOP $OLVER01 ITER   60:   1 VARS NOT CONVERGED, MAX ERR/TOL      7.7718        TIME =  13786.37

      UOS BLOCK B2       MODEL: RADFRAC                                           TIME =  13786.37

       Convergence iterations:
         OL   ML   IL     Err/Tol
          1    1   10     0.21256    
          2    1    9     0.14960    

      UOS BLOCK B1       MODEL: RADFRAC                                           TIME =  13786.37

       Convergence iterations:
         OL   ML   IL     Err/Tol
          1    1    6     0.89532    

      CONVERGENCE BLOCK $OLVER01  METHOD: BROYDEN                                 TIME =  13786.38
      ITER  61 For Tear Streams: VR

      --FLASH TEAR STREAM VR      
      KODE = 1  NTRIAL =   1  T = 423.0078  P =  141855.      V =  1.00000      Q =  0.00000    

  LOOP $OLVER01 ITER   61:   2 VARS NOT CONVERGED, MAX ERR/TOL     -50.535        TIME =  13786.38

      UOS BLOCK B2       MODEL: RADFRAC                                           TIME =  13786.38

       Convergence iterations:
         OL   ML   IL     Err/Tol
          1    1   10     0.27791E-01

      UOS BLOCK B1       MODEL: RADFRAC                                           TIME =  13786.38

       Convergence iterations:
         OL   ML   IL     Err/Tol
          1    1    7      2.2294    
          2    1    4      1.5404    
          3    1    4      1.8689    
          4    1    3     0.58099    

      CONVERGENCE BLOCK $OLVER01  METHOD: BROYDEN                                 TIME =  13786.39
      ITER  62 For Tear Streams: VR

  LOOP $OLVER01 ITER   62:     *** CONVERGED *** , MAX ERR/TOL    -0.22557        TIME =  13786.39

 STREAM DCM     
        SUBSTREAM MIXED     F =  2.307500000000005E-02  T =   322.246818375934      P =   141855.000000000    
                            H =  -122623400.089599      V =   0.00000000000000      L =   1.00000000000000    
                            ENTROPY =  -2051.09301719178      DENSITY =   1271.27226588035      MW =   84.5693450224141    
        METHA-01  1.572445471976015E-04  DICHL-01  2.291285227704927E-02  N:N-D-01  4.903175753177983E-06

 STREAM DMF     
        SUBSTREAM MIXED     F =  1.387777777777780E-02  T =   437.845920196359      P =   141855.000000000    
                            H =  -215033721.178867      V =   0.00000000000000      L =   1.00000000000000    
                            ENTROPY =  -5414.77681337026      DENSITY =   797.696922473915      MW =   73.0947107402076    
        METHA-01  2.941684913767181E-07  DICHL-01  1.009318161903702E-06  N:N-D-01  1.387647429112452E-02

 STREAM VR      
        SUBSTREAM MIXED     F =  1.458333333333336E-02  T =   423.007818657059      P =   141855.000000000    
                            H =  -182981923.154106      V =   1.00000000000000      L =   0.00000000000000    
                            ENTROPY =  -3978.53753315367      DENSITY =   2.37186682918271      MW =   58.8059756132949    
        METHA-01  5.126784171473955E-03  DICHL-01  1.765644693981495E-04  N:N-D-01  9.279984692461257E-03

 STREAM MEOH    
        SUBSTREAM MIXED     F =  4.713888888888899E-03  T =   343.556687547951      P =   141855.000000000    
                            H =  -230308126.431058      V =   0.00000000000000      L =   1.00000000000000    
                            ENTROPY =  -6647.11653022520      DENSITY =   761.042784427538      MW =   33.6974794709647    
        METHA-01  4.564674503559272E-03  DICHL-01  1.416980826398533E-04  N:N-D-01  7.516302689774081E-06

 STREAM S1      
        SUBSTREAM MIXED     F =  9.869444444444462E-03  T =   423.007815744609      P =   141855.000000000    
                            H =  -217620787.383746      V =   0.00000000000000      L =   1.00000000000000    
                            ENTROPY =  -5470.01554777698      DENSITY =   807.579854579882      MW =   70.7984095996597    
        METHA-01  5.621096679133570E-04  DICHL-01  3.486638675825760E-05  N:N-D-01  9.272468389772847E-03

 Report Writer entered                                                            Time =  13865.80

 Results generated                                                                Time =  13865.88

 Report Writer entered                                                            Time =  13866.71

 Results generated                                                                Time =  13866.78

RUN SAVED



 *** SUMMARY OF ERRORS ***

                  PHYSICAL
                  PROPERTY  SYSTEM  SIMULATION
 TERMINAL ERRORS      0        0         0
   SEVERE ERRORS      0        0         2
          ERRORS      0        0         7
        WARNINGS      0        0         1

 Report Writer entered                                                            Time =  13893.02

 Results generated                                                                Time =  13893.15

 Report Writer entered                                                            Time =  13894.55

 Results generated                                                                Time =  13894.67

RUN SAVED



 *** SUMMARY OF ERRORS ***

                  PHYSICAL
                  PROPERTY  SYSTEM  SIMULATION
 TERMINAL ERRORS      0        0         0
   SEVERE ERRORS      0        0         2
          ERRORS      0        0         7
        WARNINGS      0        0         1

 Report Writer entered                                                            Time =  13906.95

 Results generated                                                                Time =  13907.10

 Report Writer entered                                                            Time =  13908.57

 Results generated                                                                Time =  13908.67

RUN SAVED



 *** SUMMARY OF ERRORS ***

                  PHYSICAL
                  PROPERTY  SYSTEM  SIMULATION
 TERMINAL ERRORS      0        0         0
   SEVERE ERRORS      0        0         2
          ERRORS      0        0         7
        WARNINGS      0        0         1
